         156
   14.14213562011719   14.14213562011719   14.14213562011719
 Cu    -2.86267948150635   -3.04811286926270   -5.33664083480835
 Cu     6.80663871765137   -6.09099292755127   -2.12956023216248
 Cu    -2.73649740219116   -4.29075908660889   -2.13786983489990
 Cu    -3.87190914154053    6.65005493164062   -3.23211765289307
 Zr    -4.10480022430420   -2.35181427001953   -2.87321901321411
 Zr    -6.44851112365723   -4.05984020233154   -0.17134976387024
 Zr     5.25955200195312   -3.81300210952759    6.46849727630615
 Zr    -5.28042602539062   -5.50837182998657   -5.23208522796631
 Cu    -1.01050519943237   -6.47615003585815   -1.88850688934326
 Zr    -0.37187415361404   -2.92112946510315   -4.64169597625732
 Zr    -0.04407328367233    6.95034360885620    7.02758598327637
 Zr     0.79663777351379   -5.29886293411255   -5.40184545516968
 Zr     0.55924677848816   -1.94207048416138   -2.50432682037354
 Zr    -2.28963661193848   -5.75331211090088   -4.13513183593750
 Cu     2.68166399002075   -3.37135648727417   -2.92366766929626
 Cu    -6.53892421722412   -5.52187490463257    6.05129289627075
 Zr     5.19653320312500   -5.99510335922241   -4.59341955184937
 Zr     4.94578409194946   -6.93704748153687    6.73167228698730
 Zr     6.55591344833374   -4.89125061035156   -6.13690614700317
 Zr     2.14952015876770    6.24704360961914   -5.57843351364136
 Cu    -5.62533712387085    0.53124737739563   -4.12276029586792
 Cu     5.99086904525757   -1.44172823429108   -5.61005401611328
 Cu    -5.48211431503296   -2.22853469848633   -5.47684288024902
 Zr    -0.73604905605316    1.18076896667480   -6.22697830200195
 Zr    -5.87689304351807   -0.62714463472366    6.58141279220581
 Zr    -4.76983547210693    1.95027279853821   -5.95531177520752
 Zr    -4.11142539978027   -0.43092176318169   -5.86444091796875
 Cu     1.01718497276306    1.27760493755341   -3.28680872917175
 Zr    -0.18931555747986    3.15922927856445   -4.55384826660156
 Zr     1.50018095970154   -1.29720509052277   -6.14612531661987
 Cu     3.78639864921570   -2.86472702026367   -6.01541042327881
 Cu    -6.51305770874023   -3.46266317367554   -3.24923944473267
 Cu     5.62420654296875    0.94092369079590   -3.79490661621094
 Cu     2.31196403503418    1.06210088729858   -5.61213970184326
 Zr     6.71633625030518    1.57979547977448   -6.02324533462524
 Al    -4.20639944076538    4.41710281372070   -5.66579246520996
 Zr    -5.77806901931763    6.15649032592773   -5.23572778701782
 Zr    -6.62055826187134    3.44308543205261   -3.08480310440063
 Zr    -4.19407653808594    4.47574853897095    5.69146585464478
 Cu    -1.63009881973267    6.32879161834717   -5.29065084457397
 Cu    -1.52917039394379    1.76405286788940   -3.06111145019531
 Cu     0.32936030626297    4.83566045761108   -6.12433528900146
 Cu    -2.08291864395142    3.02828311920166   -5.83612394332886
 Cu    -0.87693166732788    4.73841762542725   -2.11082530021667
 Zr     0.17282235622406    6.48524236679077   -3.85311341285706
 Zr    -2.66093659400940    5.71071767807007   -0.83393883705139
 Al     4.88262367248535    4.66652965545654   -2.50262260437012
 Cu     3.12838435173035    2.49363207817078   -3.00374913215637
 Cu     4.69576978683472    3.13773536682129   -4.74890851974487
 Cu     6.92717266082764    4.14394235610962   -5.80762958526611
 Zr     2.60755586624146    4.78271675109863   -3.22834086418152
 Zr     4.81476545333862    2.57555127143860   -0.76991319656372
 Cu    -2.63251805305481   -2.84384918212891    2.68095231056213
 Cu    -4.99211215972900   -5.99809694290161   -0.79206162691116
 Zr    -4.86936426162720   -5.05811548233032    3.50701236724854
 Zr    -4.40495681762695   -2.12853884696960    1.23598122596741
 Cu    -0.25798290967941   -4.41699123382568   -2.61999058723450
 Cu    -0.74269586801529   -5.07299137115479    1.89600563049316
 Zr     0.32351127266884   -2.59344244003296    0.34083268046379
 Zr    -2.28264236450195   -3.33817839622498    0.11305943131447
 Cu     4.63328170776367   -4.72824954986572    2.03622746467590
 Cu     2.50460338592529   -6.76645374298096   -3.51579570770264
 Cu     4.49731826782227   -3.05179333686829   -1.13617920875549
 Zr     6.97436475753784   -6.58139514923096    0.39701741933823
 Zr    -6.99483633041382   -3.28729128837585    1.98860657215118
 Zr     0.86121296882629   -5.22411441802979   -0.19175121188164
 Al     6.41555738449097   -1.48289179801941   -0.07034122943878
 Cu    -5.41654634475708   -0.08361849188805    1.18474340438843
 Cu    -6.87506341934204    1.72263407707214   -0.96543848514557
 Cu    -5.68513345718384    3.32078075408936    1.55545794963837
 Cu    -1.98941349983215    0.05401715636253   -4.57644748687744
 Zr    -4.28777742385864    0.55854237079620   -2.23016238212585
 Zr    -6.65440940856934   -0.86455333232880   -2.03308987617493
 Zr    -2.58974075317383    1.30844855308533    0.92193531990051
 Cu     0.68424260616302   -0.20098111033440    0.77894365787506
 Zr     0.06329415738583    2.30726456642151    1.36332440376282
 Zr    -0.58750319480896    0.28480404615402   -1.30091571807861
 Zr    -1.81029915809631   -1.96524131298065   -1.90438067913055
 Cu     2.34850931167603   -1.16790819168091   -1.22787177562714
 Cu     4.74617481231689   -1.99561858177185   -3.45841383934021
 Cu     4.18277120590210    0.14339196681976    0.77508759498596
 Zr     4.99718189239502    0.02915185689926   -1.70917403697968
 Zr     3.41546392440796   -2.92192983627319    1.09733581542969
 Zr     6.41287994384766    1.51217937469482    1.31324446201324
 Al     6.66494083404541    3.93048095703125   -0.89298129081726
 Cu    -3.75044226646423    4.28557491302490   -3.26750421524048
 Cu     6.36354255676270    4.29472684860229    2.03923869132996
 Cu    -3.13177657127380    3.62062883377075    0.95544540882111
 Zr    -2.04908537864685    7.03663730621338    0.92798745632172
 Zr    -6.24307966232300    5.48599672317505   -2.16137051582336
 Zr    -5.21120405197144    5.69660425186157    0.55099713802338
 Zr    -4.98299551010132    3.70594978332520   -0.70332223176956
 Cu    -1.19504427909851    3.40873241424561   -0.24470317363739
 Cu     2.21006250381470    7.04713916778564   -1.21451210975647
 Cu     2.16599607467651    5.02585458755493    0.54074472188950
 Zr    -0.27599272131920    5.62539052963257    0.71722829341888
 Zr     1.05253112316132    1.80956244468689   -0.89672261476517
 Cu     3.99822425842285    4.01903390884399    2.52637267112732
 Cu    -6.18490457534790    6.80071449279785    2.35147905349731
 Cu     4.69041204452515   -7.03663253784180    2.25369071960449
 Zr     4.76902532577515    6.91666936874390   -1.34135055541992
 Zr     3.43189549446106   -0.10977868735790   -3.83521842956543
 Zr     3.48228263854980   -5.87905502319336    0.43328654766083
 Zr     4.77831172943115    4.64127349853516    0.41238886117935
 Al    -3.43128228187561   -5.75156259536743    5.33534288406372
 Cu    -3.75921702384949   -1.41970503330231    4.58041906356812
 Zr    -4.95051145553589   -2.79238080978394    6.26235151290894
 Zr    -2.41643118858337   -3.39067125320435    5.16109323501587
 Zr    -3.24443578720093    7.00955820083618   -6.93668460845947
 Al     0.29150253534317   -0.73019701242447    3.28636980056763
 Cu    -1.45142686367035   -4.93340110778809   -6.92157363891602
 Cu     1.24932992458344   -5.63309001922607    5.33777904510498
 Cu    -0.47501227259636   -2.90294408798218    3.62927603721619
 Zr    -0.69891291856766   -1.64927315711975   -6.82015085220337
 Zr     1.03383100032806   -3.71652889251709    6.70199966430664
 Cu     1.42439663410187   -5.03305482864380    2.67600154876709
 Cu     3.88220262527466   -4.83498382568359    4.73602819442749
 Zr     6.73058032989502   -5.51264190673828    3.94039440155029
 Zr     2.76401138305664    7.00968599319458    4.34080553054810
 Zr     4.65913581848145   -2.71990799903870    3.64003372192383
 Zr     4.53683233261108    5.97550868988037   -5.49614620208740
 Cu    -6.75348329544067   -2.83547687530518    4.28459882736206
 Cu    -3.52386236190796    0.63267004489899    5.83780527114868
 Cu    -5.62336635589600    1.70885014533997    5.72844362258911
 Cu     5.89647531509399   -1.30052638053894    6.21280527114868
 Zr    -2.15030527114868   -0.54376822710037    2.42823028564453
 Zr     6.45525455474854   -0.62883853912354    2.76944732666016
 Cu     1.99737155437469   -2.66735768318176    2.91436719894409
 Cu     2.32352995872498   -0.66074532270432    4.92861700057983
 Zr    -0.99509012699127    1.98677897453308    3.37400197982788
 Zr     3.24967002868652    2.26984930038452    1.09041309356689
 Zr    -0.04720449447632    1.00117111206055    5.36479091644287
 Zr    -2.12593746185303    2.68176007270813    5.81571578979492
 Zr     2.37435674667358   -0.20293086767197    2.32739281654358
 Cu     2.91142487525940   -2.61554670333862    5.96295213699341
 Zr     3.63481712341309    0.53064453601837    6.46296691894531
 Zr     4.37384557723999    1.78537631034851    3.57425355911255
 Zr     4.31053638458252    4.23519754409790    4.96790647506714
 Al    -5.86136102676392    4.75733375549316    3.36084699630737
 Cu    -3.49201273918152    5.80818843841553    2.67045998573303
 Cu    -6.49619913101196    1.52650666236877    3.25188994407654
 Cu    -1.79309225082397    4.87339496612549    6.93847036361694
 Zr    -6.48455238342285    6.26897192001343    6.10617446899414
 Zr    -3.80584025382996    1.69761860370636    3.33530998229980
 Cu    -1.54670357704163    6.76105642318726    5.19498872756958
 Cu     2.21254539489746    5.43499803543091    5.98391962051392
 Cu     0.15216529369354    4.20044040679932    5.53747177124023
 Zr    -1.10929727554321    4.45097541809082    2.51358413696289
 Zr    -0.40664151310921    7.04119968414307    2.94235086441040
 Zr     1.88339614868164    2.13093423843384    6.23595237731934
 Al     1.45821011066437    4.86964845657349    2.88489365577698
 Cu     5.36838006973267    2.06147170066833    5.85630178451538
 Cu     6.99830770492554    3.72505855560303    5.60176849365234
 Cu     3.19103646278381    4.04074430465698   -6.48346281051636
 Cu     5.82572078704834    6.44149160385132    4.22005844116211
 Zr     1.57071280479431    2.19960737228394    3.16533660888672
